Version 4
SHEET 1 1424 1396
WIRE -64 96 -96 96
WIRE 32 96 0 96
WIRE 176 96 112 96
WIRE 208 96 176 96
WIRE 304 96 272 96
WIRE 352 96 304 96
WIRE 512 96 480 96
WIRE 592 96 512 96
WIRE 672 96 592 96
WIRE 768 96 672 96
WIRE 784 96 768 96
WIRE 880 96 784 96
WIRE 512 112 512 96
WIRE 592 112 592 96
WIRE 672 112 672 96
WIRE -96 128 -96 96
WIRE 176 128 176 96
WIRE 304 128 304 96
WIRE 784 160 784 96
WIRE 880 176 880 96
WIRE 416 208 416 144
WIRE 512 208 512 192
WIRE 512 208 416 208
WIRE -96 304 -96 208
WIRE 176 304 176 192
WIRE 176 304 -96 304
WIRE 288 304 176 304
WIRE 304 304 304 192
WIRE 304 304 288 304
WIRE 416 304 416 288
WIRE 416 304 304 304
WIRE 592 304 592 176
WIRE 592 304 416 304
WIRE 672 304 672 176
WIRE 672 304 592 304
WIRE 784 304 784 240
WIRE 784 304 672 304
WIRE 880 304 880 240
WIRE 880 304 784 304
WIRE 288 320 288 304
FLAG 288 320 0
FLAG -96 96 ue
FLAG 768 96 ua
FLAG 304 96 ux
SYMBOL voltage -96 112 R0
WINDOW 3 -356 58 Left 2
WINDOW 123 0 0 Left 0
WINDOW 39 0 0 Left 0
SYMATTR Value SINE(0 {230*sqrt(2)} 50)
SYMATTR InstName V1
SYMBOL res 128 80 R90
WINDOW 0 6 56 VBottom 2
WINDOW 3 26 56 VTop 2
SYMATTR InstName R1
SYMATTR Value 100
SYMBOL Spannungsregler_eig\\LM317 416 48 R0
SYMATTR InstName U1
SYMBOL zener 192 192 R180
WINDOW 0 39 44 Left 2
WINDOW 3 39 20 Left 2
SYMATTR InstName D1
SYMATTR Value BZX84C15L
SYMBOL schottky 208 112 R270
WINDOW 0 30 32 VTop 2
WINDOW 3 3 32 VBottom 2
SYMATTR InstName D2
SYMATTR Value UPSC600
SYMBOL cap 0 80 R90
WINDOW 0 0 32 VBottom 2
WINDOW 3 32 32 VTop 2
SYMATTR InstName C1
SYMATTR Value 820n
SYMBOL cap 288 128 R0
SYMATTR InstName C2
SYMATTR Value 470µ
SYMBOL cap 576 112 R0
SYMATTR InstName C3
SYMATTR Value 10n
SYMBOL res 400 192 R0
SYMATTR InstName R2
SYMATTR Value 1k6
SYMBOL res 496 96 R0
SYMATTR InstName R3
SYMATTR Value 1k
SYMBOL cap 656 112 R0
SYMATTR InstName C4
SYMATTR Value 100n
SYMBOL cap 864 176 R0
SYMATTR InstName C5
SYMATTR Value 470µ
SYMBOL res 768 144 R0
SYMATTR InstName R4
SYMATTR Value 165
TEXT -456 344 Left 2 !.tran 0 2 1.92 .001 uic
TEXT 1000 64 Left 2 ;Am LM317 fällt sehr viel Leistung ab\n -> Buck könnte besser
