Version 4
SHEET 1 1424 1396
WIRE 32 0 -64 0
WIRE 96 0 32 0
WIRE -64 16 -64 0
WIRE 32 16 32 0
WIRE -288 96 -320 96
WIRE -192 96 -224 96
WIRE -64 96 -64 80
WIRE -64 96 -112 96
WIRE 96 96 96 0
WIRE 176 96 96 96
WIRE 208 96 176 96
WIRE 304 96 272 96
WIRE 352 96 304 96
WIRE 512 96 480 96
WIRE 592 96 512 96
WIRE 672 96 592 96
WIRE 720 96 672 96
WIRE 848 96 800 96
WIRE 944 96 848 96
WIRE 512 112 512 96
WIRE 592 112 592 96
WIRE 672 112 672 96
WIRE -320 128 -320 96
WIRE 176 128 176 96
WIRE 304 128 304 96
WIRE 944 160 944 96
WIRE 848 176 848 96
WIRE 32 208 32 80
WIRE 32 208 -320 208
WIRE 416 208 416 144
WIRE 512 208 512 192
WIRE 512 208 416 208
WIRE -64 224 -64 96
WIRE 32 224 32 208
WIRE -64 304 -64 288
WIRE 32 304 32 288
WIRE 32 304 -64 304
WIRE 176 304 176 192
WIRE 176 304 32 304
WIRE 288 304 176 304
WIRE 304 304 304 192
WIRE 304 304 288 304
WIRE 416 304 416 288
WIRE 416 304 304 304
WIRE 592 304 592 176
WIRE 592 304 416 304
WIRE 672 304 672 176
WIRE 672 304 592 304
WIRE 848 304 848 240
WIRE 848 304 672 304
WIRE 944 304 944 240
WIRE 944 304 848 304
WIRE 288 320 288 304
FLAG 288 320 0
FLAG -320 96 ue
FLAG 944 96 ua
FLAG 304 96 ux
SYMBOL voltage -320 112 R0
WINDOW 3 -356 58 Left 2
WINDOW 123 0 0 Left 0
WINDOW 39 0 0 Left 0
SYMATTR Value SINE(0 {230*sqrt(2)} 50)
SYMATTR InstName V1
SYMBOL res -96 80 R90
WINDOW 0 6 56 VBottom 2
WINDOW 3 26 56 VTop 2
SYMATTR InstName R1
SYMATTR Value 100
SYMBOL Spannungsregler_eig\\LM317 416 48 R0
SYMATTR InstName U1
SYMBOL zener 192 192 R180
WINDOW 0 39 44 Left 2
WINDOW 3 39 20 Left 2
SYMATTR InstName D1
SYMATTR Value 1N4469
SYMBOL schottky 208 112 R270
WINDOW 0 30 32 VTop 2
WINDOW 3 3 32 VBottom 2
SYMATTR InstName D2
SYMATTR Value UPSC600
SYMBOL cap -224 80 R90
WINDOW 0 0 32 VBottom 2
WINDOW 3 32 32 VTop 2
SYMATTR InstName C1
SYMATTR Value 25µ
SYMBOL cap 288 128 R0
SYMATTR InstName C2
SYMATTR Value 470µ
SYMBOL cap 576 112 R0
SYMATTR InstName C3
SYMATTR Value 10n
SYMBOL res 400 192 R0
SYMATTR InstName R2
SYMATTR Value 1k6
SYMBOL res 496 96 R0
SYMATTR InstName R3
SYMATTR Value 1k
SYMBOL cap 656 112 R0
SYMATTR InstName C4
SYMATTR Value 100n
SYMBOL cap 832 176 R0
SYMATTR InstName C5
SYMATTR Value 470µ
SYMBOL res 928 144 R0
SYMATTR InstName R4
SYMATTR Value 3
SYMBOL ind 816 80 R90
WINDOW 0 5 56 VBottom 2
WINDOW 3 32 56 VTop 2
SYMATTR InstName L1
SYMATTR Value 10µH
SYMBOL diode -48 80 R180
WINDOW 0 36 44 Left 2
WINDOW 3 36 20 Left 2
SYMATTR InstName D4
SYMBOL diode -48 288 R180
WINDOW 0 36 44 Left 2
WINDOW 3 36 20 Left 2
SYMATTR InstName D5
SYMBOL diode 48 80 R180
WINDOW 0 36 44 Left 2
WINDOW 3 36 20 Left 2
SYMATTR InstName D6
SYMBOL diode 48 288 R180
WINDOW 0 36 44 Left 2
WINDOW 3 36 20 Left 2
SYMATTR InstName D7
TEXT -456 344 Left 2 !.tran 0 30ms 0 .001 uic
TEXT 1000 64 Left 2 ;Am LM317 fällt sehr viel Leistung ab\n -> Buck könnte besser
