Version 4
SHEET 1 1424 1396
WIRE -64 96 -96 96
WIRE 32 96 0 96
WIRE 176 96 112 96
WIRE 208 96 176 96
WIRE 304 96 272 96
WIRE 352 96 304 96
WIRE 512 96 480 96
WIRE 592 96 512 96
WIRE 672 96 592 96
WIRE 768 96 672 96
WIRE 880 96 768 96
WIRE 512 112 512 96
WIRE 592 112 592 96
WIRE 672 112 672 96
WIRE -96 128 -96 96
WIRE 176 128 176 96
WIRE 304 128 304 96
WIRE 768 160 768 96
WIRE 880 176 880 96
WIRE 416 208 416 144
WIRE 512 208 512 192
WIRE 512 208 416 208
WIRE -96 304 -96 208
WIRE 176 304 176 192
WIRE 176 304 -96 304
WIRE 288 304 176 304
WIRE 304 304 304 192
WIRE 304 304 288 304
WIRE 416 304 416 288
WIRE 416 304 304 304
WIRE 592 304 592 176
WIRE 592 304 416 304
WIRE 672 304 672 176
WIRE 672 304 592 304
WIRE 768 304 768 240
WIRE 768 304 672 304
WIRE 880 304 880 240
WIRE 880 304 768 304
WIRE 288 320 288 304
WIRE -352 576 -384 576
WIRE -256 576 -288 576
WIRE -112 576 -176 576
WIRE -80 576 -112 576
WIRE 16 576 -16 576
WIRE 384 576 16 576
WIRE -384 608 -384 576
WIRE -112 608 -112 576
WIRE 16 608 16 576
WIRE 384 768 384 576
WIRE 384 768 176 768
WIRE -384 784 -384 688
WIRE -112 784 -112 672
WIRE -112 784 -384 784
WIRE 0 784 -112 784
WIRE 16 784 16 672
WIRE 16 784 0 784
WIRE 0 800 0 784
WIRE 944 800 208 800
WIRE 384 832 384 768
WIRE 176 880 176 768
WIRE 240 880 176 880
WIRE 864 880 528 880
WIRE 944 960 944 800
WIRE 240 976 176 976
WIRE 608 976 528 976
WIRE 208 1072 208 800
WIRE 240 1072 208 1072
WIRE 608 1072 608 1040
WIRE 608 1072 528 1072
WIRE 672 1072 608 1072
WIRE 784 1072 752 1072
WIRE 944 1072 944 1040
WIRE 944 1072 784 1072
WIRE 1024 1072 944 1072
WIRE 1120 1072 1024 1072
WIRE 1232 1072 1120 1072
WIRE 944 1088 944 1072
WIRE 1024 1088 1024 1072
WIRE 640 1120 608 1120
WIRE 752 1120 704 1120
WIRE 1120 1136 1120 1072
WIRE 1232 1152 1232 1072
WIRE 240 1168 112 1168
WIRE 576 1168 528 1168
WIRE 608 1168 608 1120
WIRE 608 1168 576 1168
WIRE 752 1168 752 1120
WIRE 784 1168 784 1072
WIRE 784 1168 752 1168
WIRE 864 1168 864 880
WIRE 576 1184 576 1168
WIRE 112 1216 112 1168
WIRE 608 1216 608 1168
WIRE 640 1216 608 1216
WIRE 752 1216 752 1168
WIRE 752 1216 720 1216
WIRE 240 1264 176 1264
WIRE 576 1264 528 1264
WIRE 176 1280 176 1264
WIRE 944 1280 944 1152
WIRE 1024 1280 1024 1152
WIRE 1024 1280 944 1280
WIRE 1056 1280 1024 1280
WIRE 1120 1280 1120 1216
WIRE 1120 1280 1056 1280
WIRE 1232 1280 1232 1216
WIRE 1232 1280 1120 1280
WIRE 784 1296 784 1168
WIRE 1056 1296 1056 1280
WIRE 112 1360 112 1280
WIRE 176 1360 112 1360
WIRE 176 1376 176 1360
WIRE 576 1376 576 1264
WIRE 784 1376 784 1360
WIRE 864 1376 864 1232
FLAG 288 320 0
FLAG -96 96 ue
FLAG 768 96 ua
FLAG 304 96 ux
FLAG 0 800 0
FLAG -384 576 ue1
FLAG 16 576 ux1
FLAG 1120 1072 ua1
FLAG 576 1376 0
FLAG 176 1376 0
FLAG 784 1376 0
FLAG 1056 1296 0
FLAG 864 1376 0
SYMBOL voltage -96 112 R0
WINDOW 3 -356 58 Left 2
WINDOW 123 0 0 Left 0
WINDOW 39 0 0 Left 0
SYMATTR Value SINE(0 {230*sqrt(2)} 50)
SYMATTR InstName V1
SYMBOL res 128 80 R90
WINDOW 0 6 56 VBottom 2
WINDOW 3 26 56 VTop 2
SYMATTR InstName R1
SYMATTR Value 100
SYMBOL Spannungsregler_eig\\LM317 416 48 R0
SYMATTR InstName U1
SYMBOL zener 192 192 R180
WINDOW 0 39 44 Left 2
WINDOW 3 39 20 Left 2
SYMATTR InstName D1
SYMATTR Value 1N4471
SYMBOL schottky 208 112 R270
WINDOW 0 30 32 VTop 2
WINDOW 3 3 32 VBottom 2
SYMATTR InstName D2
SYMATTR Value UPSC600
SYMBOL cap 0 80 R90
WINDOW 0 0 32 VBottom 2
WINDOW 3 32 32 VTop 2
SYMATTR InstName C1
SYMATTR Value 470µ
SYMBOL cap 288 128 R0
SYMATTR InstName C2
SYMATTR Value 820µ
SYMBOL cap 576 112 R0
SYMATTR InstName C3
SYMATTR Value 10n
SYMBOL res 400 192 R0
SYMATTR InstName R2
SYMATTR Value 1k6
SYMBOL res 496 96 R0
SYMATTR InstName R3
SYMATTR Value 1k
SYMBOL cap 656 112 R0
SYMATTR InstName C4
SYMATTR Value 100n
SYMBOL res 752 144 R0
SYMATTR InstName Rl
SYMATTR Value 4.7
SYMBOL cap 864 176 R0
SYMATTR InstName C5
SYMATTR Value 470µ
SYMBOL PowerProducts\\LT8607 384 1072 R0
SYMATTR InstName U2
SYMBOL voltage -384 592 R0
WINDOW 3 -356 58 Left 2
WINDOW 123 0 0 Left 0
WINDOW 39 0 0 Left 0
SYMATTR Value SINE(0 {230*sqrt(2)} 50)
SYMATTR InstName V2
SYMBOL res -160 560 R90
WINDOW 0 6 56 VBottom 2
WINDOW 3 26 56 VTop 2
SYMATTR InstName R5
SYMATTR Value 100
SYMBOL zener -96 672 R180
WINDOW 0 39 44 Left 2
WINDOW 3 39 20 Left 2
SYMATTR InstName D3
SYMATTR Value 1N4471
SYMBOL schottky -80 592 R270
WINDOW 0 30 32 VTop 2
WINDOW 3 3 32 VBottom 2
SYMATTR InstName D4
SYMATTR Value UPSC600
SYMBOL cap -288 560 R90
WINDOW 0 0 32 VBottom 2
WINDOW 3 32 32 VTop 2
SYMATTR InstName C6
SYMATTR Value 470µ
SYMBOL cap 0 608 R0
SYMATTR InstName C7
SYMATTR Value 820µ
SYMBOL cap 928 1088 R0
SYMATTR InstName C8
SYMATTR Value 10n
SYMBOL cap 1008 1088 R0
SYMATTR InstName C9
SYMATTR Value 100n
SYMBOL res 1104 1120 R0
SYMATTR InstName R6
SYMATTR Value 4.7
SYMBOL cap 1216 1152 R0
SYMATTR InstName C10
SYMATTR Value 470µ
SYMBOL res 560 1168 R0
SYMATTR InstName R7
SYMATTR Value 309k
SYMBOL res 160 1264 R0
SYMATTR InstName R9
SYMATTR Value 18.2k
SYMBOL cap 96 1216 R0
SYMATTR InstName C11
SYMATTR Value 10nF
SYMBOL cap 768 1296 R0
SYMATTR InstName C12
SYMATTR Value 22µF
SYMBOL cap 592 976 R0
SYMATTR InstName C13
SYMATTR Value 0.1µF
SYMBOL ind 656 1088 R270
WINDOW 0 32 56 VTop 2
WINDOW 3 5 56 VBottom 2
SYMATTR InstName L1
SYMATTR Value 2.2µH
SYMBOL res 736 1200 R90
WINDOW 0 6 56 VBottom 2
WINDOW 3 26 56 VTop 2
SYMATTR InstName R8
SYMATTR Value 1Meg
SYMBOL cap 704 1104 R90
WINDOW 0 0 32 VBottom 2
WINDOW 3 32 32 VTop 2
SYMATTR InstName C14
SYMATTR Value 10pF
SYMBOL cap 848 1168 R0
SYMATTR InstName C15
SYMATTR Value 1µF
SYMBOL res 928 944 R0
SYMATTR InstName R10
SYMATTR Value 100k
TEXT -456 344 Left 2 !.tran 0 40 0 1 uic
TEXT 1000 64 Left 2 ;Am LM317 fällt sehr viel Leistung ab\n -> Buck könnte besser
